Version 4
SHEET 1 880 680
WIRE 304 -288 304 -320
WIRE 304 -288 128 -288
WIRE 464 -288 304 -288
WIRE 464 -128 464 -160
WIRE 544 -128 464 -128
WIRE 128 -64 128 -160
WIRE 544 -64 128 -64
WIRE 768 -48 768 -96
WIRE -640 64 -816 64
WIRE -512 64 -640 64
WIRE -384 64 -512 64
WIRE -256 64 -384 64
WIRE -128 64 -256 64
WIRE 0 64 -128 64
WIRE 128 64 128 -64
WIRE 128 64 0 64
WIRE 464 64 464 -128
WIRE -704 128 -752 128
WIRE -576 128 -704 128
WIRE -448 128 -576 128
WIRE -320 128 -448 128
WIRE -192 128 -320 128
WIRE -64 128 -192 128
WIRE 64 128 -64 128
WIRE 400 128 64 128
WIRE 560 128 400 128
WIRE 592 128 560 128
WIRE 768 128 768 80
WIRE 768 128 592 128
WIRE 560 144 560 128
WIRE 768 160 768 128
WIRE -640 192 -816 192
WIRE -512 192 -640 192
WIRE -384 192 -512 192
WIRE -256 192 -384 192
WIRE -128 192 -256 192
WIRE 0 192 -128 192
WIRE 128 192 0 192
WIRE 128 224 128 192
WIRE 464 272 464 192
WIRE 560 272 464 272
WIRE 128 384 128 352
WIRE 464 384 464 272
WIRE 464 384 128 384
WIRE 128 400 128 384
FLAG 656 -16 0
FLAG 128 528 0
FLAG -176 432 0
FLAG 768 288 0
FLAG 128 384 PTAT
FLAG 592 128 Vbe
SYMBOL cktsym\\npn 128 128 R0
SYMATTR InstName Q1
SYMBOL cktsym\\npn 0 128 R0
SYMATTR InstName Q2
SYMBOL cktsym\\npn -128 128 R0
SYMATTR InstName Q3
SYMBOL cktsym\\npn -256 128 R0
SYMATTR InstName Q4
SYMBOL cktsym\\npn -384 128 R0
SYMATTR InstName Q5
SYMBOL cktsym\\npn -512 128 R0
SYMATTR InstName Q6
SYMBOL cktsym\\npn -640 128 R0
SYMATTR InstName Q7
SYMBOL cktsym\\npn -816 128 R180
SYMATTR InstName Q8
SYMBOL cktsym\\npn 464 128 R0
SYMATTR InstName Q9
SYMBOL cktsym\\opamprails 640 -96 R0
SYMATTR InstName U1
SYMBOL cktsym\\resistor 128 -224 R0
SYMATTR Value 40k
SYMATTR InstName R1
SYMBOL cktsym\\resistor 464 -224 R0
SYMATTR Value 40k
SYMATTR InstName R2
SYMBOL cktsym\\resistor 128 288 R0
SYMATTR Value 1k
SYMATTR InstName R3
SYMBOL cktsym\\vsource -176 368 R0
SYMATTR Value 5
SYMATTR InstName Vdd
SYMBOL cktsym\\resistor 128 464 R0
SYMATTR Value 4.619k
SYMATTR InstName R4
SYMBOL cktsym\\vdd -176 304 R0
SYMATTR InstName U2
SYMBOL cktsym\\vdd 304 -320 R0
SYMATTR InstName U3
SYMBOL cktsym\\vdd 656 -176 R0
SYMATTR InstName U4
SYMBOL cktsym\\resistor 768 16 R0
SYMATTR Value 1k
SYMATTR InstName R5
SYMBOL cktsym\\resistor 768 224 R0
SYMATTR Value 1k
SYMATTR InstName R6
SYMBOL cktsym\\isource 560 208 R0
SYMATTR Value 0
SYMATTR InstName ICTAT
TEXT -696 464 Left 2 !.include engr2420.sub
TEXT -696 488 Left 2 !.step temp -60 140 10
TEXT -692 512 Left 2 !.op
