Version 4
SHEET 1 880 680
WIRE 64 -32 64 -64
WIRE 160 -32 64 -32
WIRE -96 32 -96 -64
WIRE 160 32 -96 32
WIRE -960 64 -1104 64
WIRE -816 64 -960 64
WIRE -672 64 -816 64
WIRE -528 64 -672 64
WIRE -384 64 -528 64
WIRE -240 64 -384 64
WIRE -96 64 -96 32
WIRE -96 64 -240 64
WIRE 64 64 64 -32
WIRE -1168 128 -1184 128
WIRE -1024 128 -1168 128
WIRE -880 128 -1024 128
WIRE -736 128 -880 128
WIRE -592 128 -736 128
WIRE -448 128 -592 128
WIRE -304 128 -448 128
WIRE -160 128 -304 128
WIRE 0 128 -160 128
WIRE 384 128 384 0
WIRE 384 128 0 128
WIRE -960 192 -1104 192
WIRE -816 192 -960 192
WIRE -672 192 -816 192
WIRE -528 192 -672 192
WIRE -384 192 -528 192
WIRE -240 192 -384 192
WIRE -96 192 -240 192
WIRE -96 208 -96 192
WIRE -96 352 -96 336
WIRE 64 352 64 192
WIRE 64 352 -96 352
WIRE -96 368 -96 352
FLAG -96 368 0
FLAG -240 416 0
FLAG -240 288 Vdd
FLAG -96 -192 Vdd
FLAG 64 -192 Vdd
FLAG 272 -80 Vdd
FLAG 272 80 0
SYMBOL cktsym\\npn 64 128 R0
SYMATTR InstName Q1
SYMBOL cktsym\\npn -96 128 R0
SYMATTR InstName Q2
SYMBOL cktsym\\resistor -96 272 R0
SYMATTR Value 1k
SYMATTR InstName R1
SYMBOL cktsym\\vsource -240 352 R0
SYMATTR Value 5
SYMATTR InstName V1
SYMBOL cktsym\\npn -240 128 R0
SYMATTR InstName Q3
SYMBOL cktsym\\npn -384 128 R0
SYMATTR InstName Q4
SYMBOL cktsym\\npn -528 128 R0
SYMATTR InstName Q5
SYMBOL cktsym\\npn -672 128 R0
SYMATTR InstName Q6
SYMBOL cktsym\\npn -816 128 R0
SYMATTR InstName Q7
SYMBOL cktsym\\npn -960 128 R0
SYMATTR InstName Q8
SYMBOL cktsym\\npn -1104 128 R0
SYMATTR InstName Q9
SYMBOL cktsym\\opamprails 256 0 R0
SYMATTR InstName U1
SYMBOL cktsym\\resistor -96 -128 R0
SYMATTR Value 40k
SYMATTR InstName R2
SYMBOL cktsym\\resistor 64 -128 R0
SYMATTR Value 40k
SYMATTR InstName R3
TEXT -1112 368 Left 2 !.include engr2420.sub
TEXT -1112 400 Left 2 !.tran 0 1 0
TEXT -1104 432 Left 2 !.step param R1 100 100k 100
