Version 4
SHEET 1 880 680
WIRE -96 64 -96 32
WIRE -96 64 -1248 64
WIRE 144 64 144 32
WIRE -160 128 -1168 128
WIRE 80 128 -160 128
WIRE -96 192 -1248 192
WIRE -96 224 -96 192
WIRE -96 368 -96 352
WIRE 144 368 144 192
WIRE 144 368 -96 368
WIRE -96 512 -96 368
FLAG -96 512 0
FLAG -304 -112 0
FLAG -304 -240 Vdd
FLAG -96 32 Vdd
FLAG 144 32 Vdd
FLAG -480 -240 Vbe
FLAG -1168 128 Vbe
FLAG -480 -112 0
SYMBOL cktsym\\npn -96 128 R0
SYMATTR InstName Q1
SYMBOL cktsym\\npn 144 128 R0
SYMATTR InstName Q2
SYMBOL cktsym\\resistor -96 288 R0
SYMATTR Value 100
SYMATTR InstName R1
SYMBOL cktsym\\vsource -304 -176 R0
SYMATTR Value 5
SYMATTR InstName V1
SYMBOL cktsym\\npn -768 -48 R0
SYMATTR InstName Q3
SYMBOL cktsym\\npn -1072 -64 R0
SYMATTR InstName Q4
SYMBOL cktsym\\npn -656 -208 R0
SYMATTR InstName Q5
SYMBOL cktsym\\npn -784 -208 R0
SYMATTR InstName Q6
SYMBOL cktsym\\npn -928 -208 R0
SYMATTR InstName Q7
SYMBOL cktsym\\npn -1072 -208 R0
SYMATTR InstName Q8
SYMBOL cktsym\\npn -928 -64 R0
SYMATTR InstName Q9
SYMBOL cktsym\\vsource -480 -176 R0
SYMATTR Value 1
SYMATTR InstName V2
TEXT -1112 368 Left 2 !.include engr2420.sub
TEXT -1098 344 Left 2 !.dc V2 0 .8 .001
