Version 4
SHEET 1 880 680
WIRE 128 -32 128 -64
WIRE 544 -32 128 -32
WIRE 464 32 464 -64
WIRE 544 32 464 32
WIRE -640 64 -768 64
WIRE -512 64 -640 64
WIRE -384 64 -512 64
WIRE -256 64 -384 64
WIRE -128 64 -256 64
WIRE 0 64 -128 64
WIRE 128 64 128 -32
WIRE 128 64 0 64
WIRE 464 64 464 32
WIRE -832 128 -864 128
WIRE -704 128 -832 128
WIRE -576 128 -704 128
WIRE -448 128 -576 128
WIRE -320 128 -448 128
WIRE -192 128 -320 128
WIRE -64 128 -192 128
WIRE 64 128 -64 128
WIRE 400 128 64 128
WIRE 768 128 768 0
WIRE 768 128 400 128
WIRE -640 192 -768 192
WIRE -512 192 -640 192
WIRE -384 192 -512 192
WIRE -256 192 -384 192
WIRE -128 192 -256 192
WIRE 0 192 -128 192
WIRE 128 192 0 192
WIRE 128 224 128 192
WIRE 128 384 128 352
WIRE 464 384 464 192
WIRE 464 384 128 384
WIRE 128 400 128 384
FLAG 656 80 0
FLAG 128 528 0
FLAG -176 432 0
FLAG -176 304 Vdd
FLAG 128 -192 Vdd
FLAG 464 -192 Vdd
FLAG 656 -80 Vdd
SYMBOL cktsym\\npn 128 128 R0
SYMATTR InstName Q1
SYMBOL cktsym\\npn 0 128 R0
SYMATTR InstName Q2
SYMBOL cktsym\\npn -128 128 R0
SYMATTR InstName Q3
SYMBOL cktsym\\npn -256 128 R0
SYMATTR InstName Q4
SYMBOL cktsym\\npn -384 128 R0
SYMATTR InstName Q5
SYMBOL cktsym\\npn -512 128 R0
SYMATTR InstName Q6
SYMBOL cktsym\\npn -640 128 R0
SYMATTR InstName Q7
SYMBOL cktsym\\npn -768 128 R0
SYMATTR InstName Q8
SYMBOL cktsym\\npn 464 128 R0
SYMATTR InstName Q9
SYMBOL cktsym\\opamprails 640 0 R0
SYMATTR InstName U1
SYMBOL cktsym\\resistor 128 -128 R0
SYMATTR Value 40k
SYMATTR InstName R1
SYMBOL cktsym\\resistor 464 -128 R0
SYMATTR Value 40k
SYMATTR InstName R2
SYMBOL cktsym\\resistor 128 288 R0
SYMATTR Value {R1}
SYMATTR InstName R3
SYMBOL cktsym\\vsource -176 368 R0
SYMATTR Value 5
SYMATTR InstName V1
SYMBOL cktsym\\resistor 128 464 R0
SYMATTR Value 4.619k
SYMATTR InstName R4
TEXT -696 464 Left 2 !.include engr2420.sub
TEXT -864 552 Left 2 !.tran 100
TEXT -696 504 Left 2 !.step param R1 1000 50k 1k
